Circuit: * C:\Users\lugfe\Documents\GitHub\Electro1-TP2\Darlington.asc

Direct Newton iteration for .op point succeeded.

Date: Sat Nov 17 18:52:52 2018
Total elapsed time: 0.044 seconds.

tnom = 27
temp = 27
method = modified trap
totiter = 2095
traniter = 2082
tranpoints = 1042
accept = 1042
rejected = 0
matrix size = 19
fillins = 0
solver = Normal
Matrix Compiler1: 1.11 KB object code size  0.2/0.2/[0.2]
Matrix Compiler2: off  [0.1]/0.3/0.2

