Circuit: * C:\Users\lugfe\Documents\GitHub\Electro1-TP2\Darlington.asc

WARNING: Node N001 is floating.
WARNING: Node NC_01 is floating.

WARNING: Less than two connections to node N001.  This node is used by C3.
WARNING: Less than two connections to node NC_01.  This node is used by C1.
Direct Newton iteration for .op point succeeded.

Date: Sat Nov 17 20:07:39 2018
Total elapsed time: 0.059 seconds.

tnom = 27
temp = 27
method = modified trap
totiter = 2096
traniter = 2082
tranpoints = 1042
accept = 1042
rejected = 0
matrix size = 21
fillins = 0
solver = Normal
Matrix Compiler1: 1.17 KB object code size  0.2/0.3/[0.2]
Matrix Compiler2: 1.61 KB object code size  0.2/0.4/[0.2]

