Circuit: * C:\Users\lugfe\Documents\GitHub\Electro1-TP2\Darlington.asc

Direct Newton iteration for .op point succeeded.

Date: Wed Nov 14 14:46:06 2018
Total elapsed time: 0.041 seconds.

tnom = 27
temp = 27
method = trap
totiter = 13
traniter = 0
tranpoints = 0
accept = 0
rejected = 0
matrix size = 20
fillins = 0
solver = Normal
Matrix Compiler1:      68 opcodes
Matrix Compiler2: 1.62 KB object code size
